McPAT (version 1.0 of Aug, 2013) is computing the target processor...
 

McPAT (version 1.0 of Aug, 2013) results  (current print level is 5)
*****************************************************************************************
  Technology 22 nm
  Using Long Channel Devices When Appropriate
  Interconnect metal projection= aggressive interconnect technology projection
  Core clock Rate(MHz) 3600

*****************************************************************************************
Processor: 
  Area = 35.9193 mm^2
  Peak Power = 48.7074 W
  Total Leakage = 4.91146 W
  Peak Dynamic = 43.796 W
  Subthreshold Leakage = 4.87492 W
  Subthreshold Leakage with power gating = 1.67305 W
  Gate Leakage = 0.0365391 W
  Runtime Dynamic = 10.6343 W

  Total Cores: 4 cores 
  Device Type= ITRS high performance device type
    Area = 33.8245 mm^2
    Peak Dynamic = 43.7635 W
    Subthreshold Leakage = 4.6709 W
    Subthreshold Leakage with power gating = 1.58512 W
    Gate Leakage = 0.0357708 W
    Runtime Dynamic = 10.612 W

  Total L3s: 
  Device Type= ITRS high performance device type
    Area = 1.94122 mm^2
    Peak Dynamic = 0.032445 W
    Subthreshold Leakage = 0.188209 W
    Subthreshold Leakage with power gating = 0.0740346 W
    Gate Leakage = 0.000548527 W
    Runtime Dynamic = 0.0222971 W

  Total NoCs (Network/Bus): 
  Device Type= ITRS high performance device type
    Area = 0.153591 mm^2
    Peak Dynamic = 0 W
    Subthreshold Leakage = 0.0158041 W
    Subthreshold Leakage with power gating = 0.00474123 W
    Gate Leakage = 0.000219754 W
    Runtime Dynamic = 0 W

*****************************************************************************************
Core:
      Area = 8.45611 mm^2
      Peak Dynamic = 18.6977 W
      Subthreshold Leakage = 1.16773 W
      Subthreshold Leakage with power gating = 0.39628 W
      Gate Leakage = 0.0089427 W
      Runtime Dynamic = 8.42234 W

      Instruction Fetch Unit:
        Area = 1.27919 mm^2
        Peak Dynamic = 5.74107 W
        Subthreshold Leakage = 0.201057 W
        Subthreshold Leakage with power gating = 0.0747186 W
        Gate Leakage = 0.00161561 W
        Runtime Dynamic = 1.09218 W

          Instruction Cache:
            Area = 0.652161 mm^2
            Peak Dynamic = 4.49084 W
            Subthreshold Leakage = 0.0875977 W
            Subthreshold Leakage with power gating = 0.0398556 W
            Gate Leakage = 0.000896735 W
            Runtime Dynamic = 0.630388 W

          Branch Target Buffer:
            Area = 0.153336 mm^2
            Peak Dynamic = 0.107627 W
            Subthreshold Leakage = 0.0179173 W
            Subthreshold Leakage with power gating = 0.00810978 W
            Gate Leakage = 7.44666e-05 W
            Runtime Dynamic = 0.0400813 W

          Branch Predictor:
            Area = 0.031053 mm^2
            Peak Dynamic = 0.0342172 W
            Subthreshold Leakage = 0.00458876 W
            Subthreshold Leakage with power gating = 0.00191983 W
            Gate Leakage = 2.16698e-05 W
            Runtime Dynamic = 0.0128025 W

              Global Predictor:
                Area = 0.00995681 mm^2
                Peak Dynamic = 0.00950852 W
                Subthreshold Leakage = 0.00172478 W
                Subthreshold Leakage with power gating = 0.000723306 W
                Gate Leakage = 7.8416e-06 W
                Runtime Dynamic = 0.00380823 W

              Local Predictor:
              L1_Local Predictor:
                Area = 0.00570481 mm^2
                Peak Dynamic = 0.00802062 W
                Subthreshold Leakage = 0.000876881 W
                Subthreshold Leakage with power gating = 0.000367388 W
                Gate Leakage = 4.43463e-06 W
                Runtime Dynamic = 0.00329955 W

              L2_Local Predictor:
                Area = 0.00289767 mm^2
                Peak Dynamic = 0.00398848 W
                Subthreshold Leakage = 0.00048391 W
                Subthreshold Leakage with power gating = 0.000197984 W
                Gate Leakage = 2.7078e-06 W
                Runtime Dynamic = 0.00164079 W

              Chooser:
                Area = 0.00995681 mm^2
                Peak Dynamic = 0.00950852 W
                Subthreshold Leakage = 0.00172478 W
                Subthreshold Leakage with power gating = 0.000723306 W
                Gate Leakage = 7.8416e-06 W
                Runtime Dynamic = 0.00380823 W

              RAS:
                Area = 0.00253692 mm^2
                Peak Dynamic = 0.00717956 W
                Subthreshold Leakage = 0.000262308 W
                Subthreshold Leakage with power gating = 0.000105831 W
                Gate Leakage = 1.552e-06 W
                Runtime Dynamic = 0.00188653 W

          Instruction Buffer:
            Area = 0.00457032 mm^2
            Peak Dynamic = 0.399167 W
            Subthreshold Leakage = 0.000368864 W
            Subthreshold Leakage with power gating = 0.00012853 W
            Gate Leakage = 2.16072e-06 W
            Runtime Dynamic = 0.132106 W

          Instruction Decoder:
            Area = 0.427303 mm^2
            Peak Dynamic = 0.557586 W
            Subthreshold Leakage = 0.0861737 W
            Subthreshold Leakage with power gating = 0.0235019 W
            Gate Leakage = 0.000530726 W
            Runtime Dynamic = 0.276803 W

      Renaming Unit:
        Area = 0.0885597 mm^2
        Peak Dynamic = 2.92993 W
        Subthreshold Leakage = 0.0187491 W
        Subthreshold Leakage with power gating = 0.009366 W
        Gate Leakage = 0.000274281 W
        Runtime Dynamic = 0.253213 W

          Int Front End RAT:
            Area = 0.0277132 mm^2
            Peak Dynamic = 0.487067 W
            Subthreshold Leakage = 0.00156023 W
            Subthreshold Leakage with power gating = 0.000889329 W
            Gate Leakage = 1.20209e-05 W
            Runtime Dynamic = 0.228866 W

          FP Front End RAT:
            Area = 0.0402703 mm^2
            Peak Dynamic = 2.26672 W
            Subthreshold Leakage = 0.0126281 W
            Subthreshold Leakage with power gating = 0.00719803 W
            Gate Leakage = 0.000171325 W
            Runtime Dynamic = 0 W

          Free List:
            Area = 0.00980768 mm^2
            Peak Dynamic = 0.0245223 W
            Subthreshold Leakage = 0.000150194 W
            Subthreshold Leakage with power gating = 7.5768e-05 W
            Gate Leakage = 1.08162e-06 W
            Runtime Dynamic = 0.0243473 W

      Load Store Unit:
        Area = 2.11353 mm^2
        Peak Dynamic = 5.17227 W
        Subthreshold Leakage = 0.166314 W
        Subthreshold Leakage with power gating = 0.0686899 W
        Gate Leakage = 0.0011876 W
        Runtime Dynamic = 2.4557 W

          Data Cache:
            Area = 1.69426 mm^2
            Peak Dynamic = 4.81182 W
            Subthreshold Leakage = 0.155946 W
            Subthreshold Leakage with power gating = 0.0640915 W
            Gate Leakage = 0.00105245 W
            Runtime Dynamic = 2.05204 W

          LoadQ:
            Area = 0.0207189 mm^2
            Peak Dynamic = 0.113508 W
            Subthreshold Leakage = 0.00252286 W
            Subthreshold Leakage with power gating = 0.00143803 W
            Gate Leakage = 1.97785e-05 W
            Runtime Dynamic = 0.113508 W

          StoreQ:
            Area = 0.0247255 mm^2
            Peak Dynamic = 0.145074 W
            Subthreshold Leakage = 0.0034342 W
            Subthreshold Leakage with power gating = 0.0019575 W
            Gate Leakage = 2.55214e-05 W
            Runtime Dynamic = 0.290148 W

      Memory Management Unit:
        Area = 0.0478667 mm^2
        Peak Dynamic = 0.289811 W
        Subthreshold Leakage = 0.010497 W
        Subthreshold Leakage with power gating = 0.00467217 W
        Gate Leakage = 0.000133538 W
        Runtime Dynamic = 0.11732 W

          Itlb:
            Area = 0.0153187 mm^2
            Peak Dynamic = 0.0751147 W
            Subthreshold Leakage = 0.00236017 W
            Subthreshold Leakage with power gating = 0.0013453 W
            Gate Leakage = 1.72825e-05 W
            Runtime Dynamic = 0.0288678 W

          Dtlb:
            Area = 0.0217794 mm^2
            Peak Dynamic = 0.0879465 W
            Subthreshold Leakage = 0.00372634 W
            Subthreshold Leakage with power gating = 0.00212401 W
            Gate Leakage = 2.64018e-05 W
            Runtime Dynamic = 0.0884519 W

      Execution Unit:
        Area = 2.14962 mm^2
        Peak Dynamic = 4.53234 W
        Subthreshold Leakage = 0.277787 W
        Subthreshold Leakage with power gating = 0.0848929 W
        Gate Leakage = 0.00229396 W
        Runtime Dynamic = 4.485 W

          Register Files:
            Area = 0.133129 mm^2
            Peak Dynamic = 0.142228 W
            Subthreshold Leakage = 0.0028163 W
            Subthreshold Leakage with power gating = 0.000892763 W
            Gate Leakage = 2.138e-05 W
            Runtime Dynamic = 0.164597 W

              Integer RF:
                Area = 0.0834736 mm^2
                Peak Dynamic = 0.142228 W
                Subthreshold Leakage = 0.00172228 W
                Subthreshold Leakage with power gating = 0.000521558 W
                Gate Leakage = 1.3533e-05 W
                Runtime Dynamic = 0.14546 W

              Floating Point RF:
                Area = 0.0496557 mm^2
                Peak Dynamic = 0 W
                Subthreshold Leakage = 0.00109402 W
                Subthreshold Leakage with power gating = 0.000371205 W
                Gate Leakage = 7.84697e-06 W
                Runtime Dynamic = 0.0191365 W

          Instruction Scheduler:
            Area = 0.53269 mm^2
            Peak Dynamic = 3.36823 W
            Subthreshold Leakage = 0.0327819 W
            Subthreshold Leakage with power gating = 0.0179486 W
            Gate Leakage = 0.000257818 W
            Runtime Dynamic = 2.08286 W

              Instruction Window:
                Area = 0.250713 mm^2
                Peak Dynamic = 1.44458 W
                Subthreshold Leakage = 0.0233811 W
                Subthreshold Leakage with power gating = 0.0133031 W
                Gate Leakage = 0.000189603 W
                Runtime Dynamic = 0.938939 W

              FP Instruction Window:
                Area = 0.0803106 mm^2
                Peak Dynamic = 0.848283 W
                Subthreshold Leakage = 0.00495177 W
                Subthreshold Leakage with power gating = 0.00279839 W
                Gate Leakage = 4.09447e-05 W
                Runtime Dynamic = 0.548231 W

              ROB:
                Area = 0.201666 mm^2
                Peak Dynamic = 1.07537 W
                Subthreshold Leakage = 0.00444903 W
                Subthreshold Leakage with power gating = 0.00184714 W
                Gate Leakage = 2.72708e-05 W
                Runtime Dynamic = 0.59569 W

          Integer ALUs (Count: 6 ):
            Area = 0.230726 mm^2
            Peak Dynamic = 0.625353 W
            Subthreshold Leakage = 0.0781696 W
            Subthreshold Leakage with power gating = 0.021319 W
            Gate Leakage = 0.000632815 W
            Runtime Dynamic = 0.66479 W

          Floating Point Units (FPUs) (Count: 2 ):
            Area = 1.11344 mm^2
            Peak Dynamic = 0 W
            Subthreshold Leakage = 0.0943076 W
            Subthreshold Leakage with power gating = 0.0257203 W
            Gate Leakage = 0.000763458 W
            Runtime Dynamic = 0.36494 W

          Complex ALUs (Mul/Div) (Count: 1 ):
            Area = 0.115363 mm^2
            Peak Dynamic = 0 W
            Subthreshold Leakage = 0.0390848 W
            Subthreshold Leakage with power gating = 0.0106595 W
            Gate Leakage = 0.000316407 W
            Runtime Dynamic = 0.243293 W

          Results Broadcast Bus:
            Area Overhead = 0.0135028 mm^2
            Peak Dynamic = 0.34634 W
            Subthreshold Leakage = 0.0262163 W
            Subthreshold Leakage with power gating = 0.0071499 W
            Gate Leakage = 0.000212232 W
            Runtime Dynamic = 0.964523 W

    L2
    Area = 0.622965 mm^2
    Peak Dynamic = 0.0322771 W
    Subthreshold Leakage = 0.128373 W
    Subthreshold Leakage with power gating = 0.0544083 W
    Gate Leakage = 0.000483288 W
    Runtime Dynamic = 0.0189269 W

*****************************************************************************************
Core:
      Area = 8.45611 mm^2
      Peak Dynamic = 8.35527 W
      Subthreshold Leakage = 1.16773 W
      Subthreshold Leakage with power gating = 0.39628 W
      Gate Leakage = 0.0089427 W
      Runtime Dynamic = 0.72988 W

      Instruction Fetch Unit:
        Area = 1.27919 mm^2
        Peak Dynamic = 1.0986 W
        Subthreshold Leakage = 0.201057 W
        Subthreshold Leakage with power gating = 0.0747186 W
        Gate Leakage = 0.00161561 W
        Runtime Dynamic = 4.21188e-08 W

          Instruction Cache:
            Area = 0.652161 mm^2
            Peak Dynamic = 0 W
            Subthreshold Leakage = 0.0875977 W
            Subthreshold Leakage with power gating = 0.0398556 W
            Gate Leakage = 0.000896735 W
            Runtime Dynamic = 0 W

          Branch Target Buffer:
            Area = 0.153336 mm^2
            Peak Dynamic = 0.107627 W
            Subthreshold Leakage = 0.0179173 W
            Subthreshold Leakage with power gating = 0.00810978 W
            Gate Leakage = 7.44666e-05 W
            Runtime Dynamic = 0 W

          Branch Predictor:
            Area = 0.031053 mm^2
            Peak Dynamic = 0.0342172 W
            Subthreshold Leakage = 0.00458876 W
            Subthreshold Leakage with power gating = 0.00191983 W
            Gate Leakage = 2.16698e-05 W
            Runtime Dynamic = 0 W

              Global Predictor:
                Area = 0.00995681 mm^2
                Peak Dynamic = 0.00950852 W
                Subthreshold Leakage = 0.00172478 W
                Subthreshold Leakage with power gating = 0.000723306 W
                Gate Leakage = 7.8416e-06 W
                Runtime Dynamic = 0 W

              Local Predictor:
              L1_Local Predictor:
                Area = 0.00570481 mm^2
                Peak Dynamic = 0.00802062 W
                Subthreshold Leakage = 0.000876881 W
                Subthreshold Leakage with power gating = 0.000367388 W
                Gate Leakage = 4.43463e-06 W
                Runtime Dynamic = 0 W

              L2_Local Predictor:
                Area = 0.00289767 mm^2
                Peak Dynamic = 0.00398848 W
                Subthreshold Leakage = 0.00048391 W
                Subthreshold Leakage with power gating = 0.000197984 W
                Gate Leakage = 2.7078e-06 W
                Runtime Dynamic = 0 W

              Chooser:
                Area = 0.00995681 mm^2
                Peak Dynamic = 0.00950852 W
                Subthreshold Leakage = 0.00172478 W
                Subthreshold Leakage with power gating = 0.000723306 W
                Gate Leakage = 7.8416e-06 W
                Runtime Dynamic = 0 W

              RAS:
                Area = 0.00253692 mm^2
                Peak Dynamic = 0.00717956 W
                Subthreshold Leakage = 0.000262308 W
                Subthreshold Leakage with power gating = 0.000105831 W
                Gate Leakage = 1.552e-06 W
                Runtime Dynamic = 0 W

          Instruction Buffer:
            Area = 0.00457032 mm^2
            Peak Dynamic = 0.399167 W
            Subthreshold Leakage = 0.000368864 W
            Subthreshold Leakage with power gating = 0.00012853 W
            Gate Leakage = 2.16072e-06 W
            Runtime Dynamic = 0 W

          Instruction Decoder:
            Area = 0.427303 mm^2
            Peak Dynamic = 0.557586 W
            Subthreshold Leakage = 0.0861737 W
            Subthreshold Leakage with power gating = 0.0235019 W
            Gate Leakage = 0.000530726 W
            Runtime Dynamic = 0 W

      Renaming Unit:
        Area = 0.0885597 mm^2
        Peak Dynamic = 2.92993 W
        Subthreshold Leakage = 0.0187491 W
        Subthreshold Leakage with power gating = 0.009366 W
        Gate Leakage = 0.000274281 W
        Runtime Dynamic = 4.21188e-08 W

          Int Front End RAT:
            Area = 0.0277132 mm^2
            Peak Dynamic = 0.487067 W
            Subthreshold Leakage = 0.00156023 W
            Subthreshold Leakage with power gating = 0.000889329 W
            Gate Leakage = 1.20209e-05 W
            Runtime Dynamic = 0 W

          FP Front End RAT:
            Area = 0.0402703 mm^2
            Peak Dynamic = 2.26672 W
            Subthreshold Leakage = 0.0126281 W
            Subthreshold Leakage with power gating = 0.00719803 W
            Gate Leakage = 0.000171325 W
            Runtime Dynamic = 0 W

          Free List:
            Area = 0.00980768 mm^2
            Peak Dynamic = 0.0245223 W
            Subthreshold Leakage = 0.000150194 W
            Subthreshold Leakage with power gating = 7.5768e-05 W
            Gate Leakage = 1.08162e-06 W
            Runtime Dynamic = 0 W

      Load Store Unit:
        Area = 2.11353 mm^2
        Peak Dynamic = 0.882694 W
        Subthreshold Leakage = 0.166314 W
        Subthreshold Leakage with power gating = 0.0686899 W
        Gate Leakage = 0.0011876 W
        Runtime Dynamic = 4.21188e-08 W

          Data Cache:
            Area = 1.69426 mm^2
            Peak Dynamic = 0.882694 W
            Subthreshold Leakage = 0.155946 W
            Subthreshold Leakage with power gating = 0.0640915 W
            Gate Leakage = 0.00105245 W
            Runtime Dynamic = 0 W

          LoadQ:
            Area = 0.0207189 mm^2
            Peak Dynamic = 0 W
            Subthreshold Leakage = 0.00252286 W
            Subthreshold Leakage with power gating = 0.00143803 W
            Gate Leakage = 1.97785e-05 W
            Runtime Dynamic = 0 W

          StoreQ:
            Area = 0.0247255 mm^2
            Peak Dynamic = 0 W
            Subthreshold Leakage = 0.0034342 W
            Subthreshold Leakage with power gating = 0.0019575 W
            Gate Leakage = 2.55214e-05 W
            Runtime Dynamic = 0 W

      Memory Management Unit:
        Area = 0.0478667 mm^2
        Peak Dynamic = 0.0758138 W
        Subthreshold Leakage = 0.010497 W
        Subthreshold Leakage with power gating = 0.00467217 W
        Gate Leakage = 0.000133538 W
        Runtime Dynamic = 4.21188e-08 W

          Itlb:
            Area = 0.0153187 mm^2
            Peak Dynamic = 0 W
            Subthreshold Leakage = 0.00236017 W
            Subthreshold Leakage with power gating = 0.0013453 W
            Gate Leakage = 1.72825e-05 W
            Runtime Dynamic = 0 W

          Dtlb:
            Area = 0.0217794 mm^2
            Peak Dynamic = 0 W
            Subthreshold Leakage = 0.00372634 W
            Subthreshold Leakage with power gating = 0.00212401 W
            Gate Leakage = 2.64018e-05 W
            Runtime Dynamic = 0 W

      Execution Unit:
        Area = 2.14962 mm^2
        Peak Dynamic = 3.36823 W
        Subthreshold Leakage = 0.277787 W
        Subthreshold Leakage with power gating = 0.0848929 W
        Gate Leakage = 0.00229396 W
        Runtime Dynamic = 0.72988 W

          Register Files:
            Area = 0.133129 mm^2
            Peak Dynamic = 0 W
            Subthreshold Leakage = 0.0028163 W
            Subthreshold Leakage with power gating = 0.000892763 W
            Gate Leakage = 2.138e-05 W
            Runtime Dynamic = 0 W

              Integer RF:
                Area = 0.0834736 mm^2
                Peak Dynamic = 0 W
                Subthreshold Leakage = 0.00172228 W
                Subthreshold Leakage with power gating = 0.000521558 W
                Gate Leakage = 1.3533e-05 W
                Runtime Dynamic = 0 W

              Floating Point RF:
                Area = 0.0496557 mm^2
                Peak Dynamic = 0 W
                Subthreshold Leakage = 0.00109402 W
                Subthreshold Leakage with power gating = 0.000371205 W
                Gate Leakage = 7.84697e-06 W
                Runtime Dynamic = 0 W

          Instruction Scheduler:
            Area = 0.53269 mm^2
            Peak Dynamic = 3.36823 W
            Subthreshold Leakage = 0.0327819 W
            Subthreshold Leakage with power gating = 0.0179486 W
            Gate Leakage = 0.000257818 W
            Runtime Dynamic = 0 W

              Instruction Window:
                Area = 0.250713 mm^2
                Peak Dynamic = 1.44458 W
                Subthreshold Leakage = 0.0233811 W
                Subthreshold Leakage with power gating = 0.0133031 W
                Gate Leakage = 0.000189603 W
                Runtime Dynamic = 0 W

              FP Instruction Window:
                Area = 0.0803106 mm^2
                Peak Dynamic = 0.848283 W
                Subthreshold Leakage = 0.00495177 W
                Subthreshold Leakage with power gating = 0.00279839 W
                Gate Leakage = 4.09447e-05 W
                Runtime Dynamic = 0 W

              ROB:
                Area = 0.201666 mm^2
                Peak Dynamic = 1.07537 W
                Subthreshold Leakage = 0.00444903 W
                Subthreshold Leakage with power gating = 0.00184714 W
                Gate Leakage = 2.72708e-05 W
                Runtime Dynamic = 0 W

          Integer ALUs (Count: 6 ):
            Area = 0.230726 mm^2
            Peak Dynamic = 0 W
            Subthreshold Leakage = 0.0781696 W
            Subthreshold Leakage with power gating = 0.021319 W
            Gate Leakage = 0.000632815 W
            Runtime Dynamic = 0.121647 W

          Floating Point Units (FPUs) (Count: 2 ):
            Area = 1.11344 mm^2
            Peak Dynamic = 0 W
            Subthreshold Leakage = 0.0943076 W
            Subthreshold Leakage with power gating = 0.0257203 W
            Gate Leakage = 0.000763458 W
            Runtime Dynamic = 0.36494 W

          Complex ALUs (Mul/Div) (Count: 1 ):
            Area = 0.115363 mm^2
            Peak Dynamic = 0 W
            Subthreshold Leakage = 0.0390848 W
            Subthreshold Leakage with power gating = 0.0106595 W
            Gate Leakage = 0.000316407 W
            Runtime Dynamic = 0.243293 W

          Results Broadcast Bus:
            Area Overhead = 0.0135028 mm^2
            Peak Dynamic = 0 W
            Subthreshold Leakage = 0.0262163 W
            Subthreshold Leakage with power gating = 0.0071499 W
            Gate Leakage = 0.000212232 W
            Runtime Dynamic = 0 W

    L2
    Area = 0.622965 mm^2
    Peak Dynamic = 0 W
    Subthreshold Leakage = 0.128373 W
    Subthreshold Leakage with power gating = 0.0544083 W
    Gate Leakage = 0.000483288 W
    Runtime Dynamic = 3.9683e-07 W

*****************************************************************************************
Core:
      Area = 8.45611 mm^2
      Peak Dynamic = 8.35527 W
      Subthreshold Leakage = 1.16773 W
      Subthreshold Leakage with power gating = 0.39628 W
      Gate Leakage = 0.0089427 W
      Runtime Dynamic = 0.72988 W

      Instruction Fetch Unit:
        Area = 1.27919 mm^2
        Peak Dynamic = 1.0986 W
        Subthreshold Leakage = 0.201057 W
        Subthreshold Leakage with power gating = 0.0747186 W
        Gate Leakage = 0.00161561 W
        Runtime Dynamic = 4.21188e-08 W

          Instruction Cache:
            Area = 0.652161 mm^2
            Peak Dynamic = 0 W
            Subthreshold Leakage = 0.0875977 W
            Subthreshold Leakage with power gating = 0.0398556 W
            Gate Leakage = 0.000896735 W
            Runtime Dynamic = 0 W

          Branch Target Buffer:
            Area = 0.153336 mm^2
            Peak Dynamic = 0.107627 W
            Subthreshold Leakage = 0.0179173 W
            Subthreshold Leakage with power gating = 0.00810978 W
            Gate Leakage = 7.44666e-05 W
            Runtime Dynamic = 0 W

          Branch Predictor:
            Area = 0.031053 mm^2
            Peak Dynamic = 0.0342172 W
            Subthreshold Leakage = 0.00458876 W
            Subthreshold Leakage with power gating = 0.00191983 W
            Gate Leakage = 2.16698e-05 W
            Runtime Dynamic = 0 W

              Global Predictor:
                Area = 0.00995681 mm^2
                Peak Dynamic = 0.00950852 W
                Subthreshold Leakage = 0.00172478 W
                Subthreshold Leakage with power gating = 0.000723306 W
                Gate Leakage = 7.8416e-06 W
                Runtime Dynamic = 0 W

              Local Predictor:
              L1_Local Predictor:
                Area = 0.00570481 mm^2
                Peak Dynamic = 0.00802062 W
                Subthreshold Leakage = 0.000876881 W
                Subthreshold Leakage with power gating = 0.000367388 W
                Gate Leakage = 4.43463e-06 W
                Runtime Dynamic = 0 W

              L2_Local Predictor:
                Area = 0.00289767 mm^2
                Peak Dynamic = 0.00398848 W
                Subthreshold Leakage = 0.00048391 W
                Subthreshold Leakage with power gating = 0.000197984 W
                Gate Leakage = 2.7078e-06 W
                Runtime Dynamic = 0 W

              Chooser:
                Area = 0.00995681 mm^2
                Peak Dynamic = 0.00950852 W
                Subthreshold Leakage = 0.00172478 W
                Subthreshold Leakage with power gating = 0.000723306 W
                Gate Leakage = 7.8416e-06 W
                Runtime Dynamic = 0 W

              RAS:
                Area = 0.00253692 mm^2
                Peak Dynamic = 0.00717956 W
                Subthreshold Leakage = 0.000262308 W
                Subthreshold Leakage with power gating = 0.000105831 W
                Gate Leakage = 1.552e-06 W
                Runtime Dynamic = 0 W

          Instruction Buffer:
            Area = 0.00457032 mm^2
            Peak Dynamic = 0.399167 W
            Subthreshold Leakage = 0.000368864 W
            Subthreshold Leakage with power gating = 0.00012853 W
            Gate Leakage = 2.16072e-06 W
            Runtime Dynamic = 0 W

          Instruction Decoder:
            Area = 0.427303 mm^2
            Peak Dynamic = 0.557586 W
            Subthreshold Leakage = 0.0861737 W
            Subthreshold Leakage with power gating = 0.0235019 W
            Gate Leakage = 0.000530726 W
            Runtime Dynamic = 0 W

      Renaming Unit:
        Area = 0.0885597 mm^2
        Peak Dynamic = 2.92993 W
        Subthreshold Leakage = 0.0187491 W
        Subthreshold Leakage with power gating = 0.009366 W
        Gate Leakage = 0.000274281 W
        Runtime Dynamic = 4.21188e-08 W

          Int Front End RAT:
            Area = 0.0277132 mm^2
            Peak Dynamic = 0.487067 W
            Subthreshold Leakage = 0.00156023 W
            Subthreshold Leakage with power gating = 0.000889329 W
            Gate Leakage = 1.20209e-05 W
            Runtime Dynamic = 0 W

          FP Front End RAT:
            Area = 0.0402703 mm^2
            Peak Dynamic = 2.26672 W
            Subthreshold Leakage = 0.0126281 W
            Subthreshold Leakage with power gating = 0.00719803 W
            Gate Leakage = 0.000171325 W
            Runtime Dynamic = 0 W

          Free List:
            Area = 0.00980768 mm^2
            Peak Dynamic = 0.0245223 W
            Subthreshold Leakage = 0.000150194 W
            Subthreshold Leakage with power gating = 7.5768e-05 W
            Gate Leakage = 1.08162e-06 W
            Runtime Dynamic = 0 W

      Load Store Unit:
        Area = 2.11353 mm^2
        Peak Dynamic = 0.882694 W
        Subthreshold Leakage = 0.166314 W
        Subthreshold Leakage with power gating = 0.0686899 W
        Gate Leakage = 0.0011876 W
        Runtime Dynamic = 4.21188e-08 W

          Data Cache:
            Area = 1.69426 mm^2
            Peak Dynamic = 0.882694 W
            Subthreshold Leakage = 0.155946 W
            Subthreshold Leakage with power gating = 0.0640915 W
            Gate Leakage = 0.00105245 W
            Runtime Dynamic = 0 W

          LoadQ:
            Area = 0.0207189 mm^2
            Peak Dynamic = 0 W
            Subthreshold Leakage = 0.00252286 W
            Subthreshold Leakage with power gating = 0.00143803 W
            Gate Leakage = 1.97785e-05 W
            Runtime Dynamic = 0 W

          StoreQ:
            Area = 0.0247255 mm^2
            Peak Dynamic = 0 W
            Subthreshold Leakage = 0.0034342 W
            Subthreshold Leakage with power gating = 0.0019575 W
            Gate Leakage = 2.55214e-05 W
            Runtime Dynamic = 0 W

      Memory Management Unit:
        Area = 0.0478667 mm^2
        Peak Dynamic = 0.0758138 W
        Subthreshold Leakage = 0.010497 W
        Subthreshold Leakage with power gating = 0.00467217 W
        Gate Leakage = 0.000133538 W
        Runtime Dynamic = 4.21188e-08 W

          Itlb:
            Area = 0.0153187 mm^2
            Peak Dynamic = 0 W
            Subthreshold Leakage = 0.00236017 W
            Subthreshold Leakage with power gating = 0.0013453 W
            Gate Leakage = 1.72825e-05 W
            Runtime Dynamic = 0 W

          Dtlb:
            Area = 0.0217794 mm^2
            Peak Dynamic = 0 W
            Subthreshold Leakage = 0.00372634 W
            Subthreshold Leakage with power gating = 0.00212401 W
            Gate Leakage = 2.64018e-05 W
            Runtime Dynamic = 0 W

      Execution Unit:
        Area = 2.14962 mm^2
        Peak Dynamic = 3.36823 W
        Subthreshold Leakage = 0.277787 W
        Subthreshold Leakage with power gating = 0.0848929 W
        Gate Leakage = 0.00229396 W
        Runtime Dynamic = 0.72988 W

          Register Files:
            Area = 0.133129 mm^2
            Peak Dynamic = 0 W
            Subthreshold Leakage = 0.0028163 W
            Subthreshold Leakage with power gating = 0.000892763 W
            Gate Leakage = 2.138e-05 W
            Runtime Dynamic = 0 W

              Integer RF:
                Area = 0.0834736 mm^2
                Peak Dynamic = 0 W
                Subthreshold Leakage = 0.00172228 W
                Subthreshold Leakage with power gating = 0.000521558 W
                Gate Leakage = 1.3533e-05 W
                Runtime Dynamic = 0 W

              Floating Point RF:
                Area = 0.0496557 mm^2
                Peak Dynamic = 0 W
                Subthreshold Leakage = 0.00109402 W
                Subthreshold Leakage with power gating = 0.000371205 W
                Gate Leakage = 7.84697e-06 W
                Runtime Dynamic = 0 W

          Instruction Scheduler:
            Area = 0.53269 mm^2
            Peak Dynamic = 3.36823 W
            Subthreshold Leakage = 0.0327819 W
            Subthreshold Leakage with power gating = 0.0179486 W
            Gate Leakage = 0.000257818 W
            Runtime Dynamic = 0 W

              Instruction Window:
                Area = 0.250713 mm^2
                Peak Dynamic = 1.44458 W
                Subthreshold Leakage = 0.0233811 W
                Subthreshold Leakage with power gating = 0.0133031 W
                Gate Leakage = 0.000189603 W
                Runtime Dynamic = 0 W

              FP Instruction Window:
                Area = 0.0803106 mm^2
                Peak Dynamic = 0.848283 W
                Subthreshold Leakage = 0.00495177 W
                Subthreshold Leakage with power gating = 0.00279839 W
                Gate Leakage = 4.09447e-05 W
                Runtime Dynamic = 0 W

              ROB:
                Area = 0.201666 mm^2
                Peak Dynamic = 1.07537 W
                Subthreshold Leakage = 0.00444903 W
                Subthreshold Leakage with power gating = 0.00184714 W
                Gate Leakage = 2.72708e-05 W
                Runtime Dynamic = 0 W

          Integer ALUs (Count: 6 ):
            Area = 0.230726 mm^2
            Peak Dynamic = 0 W
            Subthreshold Leakage = 0.0781696 W
            Subthreshold Leakage with power gating = 0.021319 W
            Gate Leakage = 0.000632815 W
            Runtime Dynamic = 0.121647 W

          Floating Point Units (FPUs) (Count: 2 ):
            Area = 1.11344 mm^2
            Peak Dynamic = 0 W
            Subthreshold Leakage = 0.0943076 W
            Subthreshold Leakage with power gating = 0.0257203 W
            Gate Leakage = 0.000763458 W
            Runtime Dynamic = 0.36494 W

          Complex ALUs (Mul/Div) (Count: 1 ):
            Area = 0.115363 mm^2
            Peak Dynamic = 0 W
            Subthreshold Leakage = 0.0390848 W
            Subthreshold Leakage with power gating = 0.0106595 W
            Gate Leakage = 0.000316407 W
            Runtime Dynamic = 0.243293 W

          Results Broadcast Bus:
            Area Overhead = 0.0135028 mm^2
            Peak Dynamic = 0 W
            Subthreshold Leakage = 0.0262163 W
            Subthreshold Leakage with power gating = 0.0071499 W
            Gate Leakage = 0.000212232 W
            Runtime Dynamic = 0 W

    L2
    Area = 0.622965 mm^2
    Peak Dynamic = 0 W
    Subthreshold Leakage = 0.128373 W
    Subthreshold Leakage with power gating = 0.0544083 W
    Gate Leakage = 0.000483288 W
    Runtime Dynamic = 3.9683e-07 W

*****************************************************************************************
Core:
      Area = 8.45611 mm^2
      Peak Dynamic = 8.35527 W
      Subthreshold Leakage = 1.16773 W
      Subthreshold Leakage with power gating = 0.39628 W
      Gate Leakage = 0.0089427 W
      Runtime Dynamic = 0.72988 W

      Instruction Fetch Unit:
        Area = 1.27919 mm^2
        Peak Dynamic = 1.0986 W
        Subthreshold Leakage = 0.201057 W
        Subthreshold Leakage with power gating = 0.0747186 W
        Gate Leakage = 0.00161561 W
        Runtime Dynamic = 4.21188e-08 W

          Instruction Cache:
            Area = 0.652161 mm^2
            Peak Dynamic = 0 W
            Subthreshold Leakage = 0.0875977 W
            Subthreshold Leakage with power gating = 0.0398556 W
            Gate Leakage = 0.000896735 W
            Runtime Dynamic = 0 W

          Branch Target Buffer:
            Area = 0.153336 mm^2
            Peak Dynamic = 0.107627 W
            Subthreshold Leakage = 0.0179173 W
            Subthreshold Leakage with power gating = 0.00810978 W
            Gate Leakage = 7.44666e-05 W
            Runtime Dynamic = 0 W

          Branch Predictor:
            Area = 0.031053 mm^2
            Peak Dynamic = 0.0342172 W
            Subthreshold Leakage = 0.00458876 W
            Subthreshold Leakage with power gating = 0.00191983 W
            Gate Leakage = 2.16698e-05 W
            Runtime Dynamic = 0 W

              Global Predictor:
                Area = 0.00995681 mm^2
                Peak Dynamic = 0.00950852 W
                Subthreshold Leakage = 0.00172478 W
                Subthreshold Leakage with power gating = 0.000723306 W
                Gate Leakage = 7.8416e-06 W
                Runtime Dynamic = 0 W

              Local Predictor:
              L1_Local Predictor:
                Area = 0.00570481 mm^2
                Peak Dynamic = 0.00802062 W
                Subthreshold Leakage = 0.000876881 W
                Subthreshold Leakage with power gating = 0.000367388 W
                Gate Leakage = 4.43463e-06 W
                Runtime Dynamic = 0 W

              L2_Local Predictor:
                Area = 0.00289767 mm^2
                Peak Dynamic = 0.00398848 W
                Subthreshold Leakage = 0.00048391 W
                Subthreshold Leakage with power gating = 0.000197984 W
                Gate Leakage = 2.7078e-06 W
                Runtime Dynamic = 0 W

              Chooser:
                Area = 0.00995681 mm^2
                Peak Dynamic = 0.00950852 W
                Subthreshold Leakage = 0.00172478 W
                Subthreshold Leakage with power gating = 0.000723306 W
                Gate Leakage = 7.8416e-06 W
                Runtime Dynamic = 0 W

              RAS:
                Area = 0.00253692 mm^2
                Peak Dynamic = 0.00717956 W
                Subthreshold Leakage = 0.000262308 W
                Subthreshold Leakage with power gating = 0.000105831 W
                Gate Leakage = 1.552e-06 W
                Runtime Dynamic = 0 W

          Instruction Buffer:
            Area = 0.00457032 mm^2
            Peak Dynamic = 0.399167 W
            Subthreshold Leakage = 0.000368864 W
            Subthreshold Leakage with power gating = 0.00012853 W
            Gate Leakage = 2.16072e-06 W
            Runtime Dynamic = 0 W

          Instruction Decoder:
            Area = 0.427303 mm^2
            Peak Dynamic = 0.557586 W
            Subthreshold Leakage = 0.0861737 W
            Subthreshold Leakage with power gating = 0.0235019 W
            Gate Leakage = 0.000530726 W
            Runtime Dynamic = 0 W

      Renaming Unit:
        Area = 0.0885597 mm^2
        Peak Dynamic = 2.92993 W
        Subthreshold Leakage = 0.0187491 W
        Subthreshold Leakage with power gating = 0.009366 W
        Gate Leakage = 0.000274281 W
        Runtime Dynamic = 4.21188e-08 W

          Int Front End RAT:
            Area = 0.0277132 mm^2
            Peak Dynamic = 0.487067 W
            Subthreshold Leakage = 0.00156023 W
            Subthreshold Leakage with power gating = 0.000889329 W
            Gate Leakage = 1.20209e-05 W
            Runtime Dynamic = 0 W

          FP Front End RAT:
            Area = 0.0402703 mm^2
            Peak Dynamic = 2.26672 W
            Subthreshold Leakage = 0.0126281 W
            Subthreshold Leakage with power gating = 0.00719803 W
            Gate Leakage = 0.000171325 W
            Runtime Dynamic = 0 W

          Free List:
            Area = 0.00980768 mm^2
            Peak Dynamic = 0.0245223 W
            Subthreshold Leakage = 0.000150194 W
            Subthreshold Leakage with power gating = 7.5768e-05 W
            Gate Leakage = 1.08162e-06 W
            Runtime Dynamic = 0 W

      Load Store Unit:
        Area = 2.11353 mm^2
        Peak Dynamic = 0.882694 W
        Subthreshold Leakage = 0.166314 W
        Subthreshold Leakage with power gating = 0.0686899 W
        Gate Leakage = 0.0011876 W
        Runtime Dynamic = 4.21188e-08 W

          Data Cache:
            Area = 1.69426 mm^2
            Peak Dynamic = 0.882694 W
            Subthreshold Leakage = 0.155946 W
            Subthreshold Leakage with power gating = 0.0640915 W
            Gate Leakage = 0.00105245 W
            Runtime Dynamic = 0 W

          LoadQ:
            Area = 0.0207189 mm^2
            Peak Dynamic = 0 W
            Subthreshold Leakage = 0.00252286 W
            Subthreshold Leakage with power gating = 0.00143803 W
            Gate Leakage = 1.97785e-05 W
            Runtime Dynamic = 0 W

          StoreQ:
            Area = 0.0247255 mm^2
            Peak Dynamic = 0 W
            Subthreshold Leakage = 0.0034342 W
            Subthreshold Leakage with power gating = 0.0019575 W
            Gate Leakage = 2.55214e-05 W
            Runtime Dynamic = 0 W

      Memory Management Unit:
        Area = 0.0478667 mm^2
        Peak Dynamic = 0.0758138 W
        Subthreshold Leakage = 0.010497 W
        Subthreshold Leakage with power gating = 0.00467217 W
        Gate Leakage = 0.000133538 W
        Runtime Dynamic = 4.21188e-08 W

          Itlb:
            Area = 0.0153187 mm^2
            Peak Dynamic = 0 W
            Subthreshold Leakage = 0.00236017 W
            Subthreshold Leakage with power gating = 0.0013453 W
            Gate Leakage = 1.72825e-05 W
            Runtime Dynamic = 0 W

          Dtlb:
            Area = 0.0217794 mm^2
            Peak Dynamic = 0 W
            Subthreshold Leakage = 0.00372634 W
            Subthreshold Leakage with power gating = 0.00212401 W
            Gate Leakage = 2.64018e-05 W
            Runtime Dynamic = 0 W

      Execution Unit:
        Area = 2.14962 mm^2
        Peak Dynamic = 3.36823 W
        Subthreshold Leakage = 0.277787 W
        Subthreshold Leakage with power gating = 0.0848929 W
        Gate Leakage = 0.00229396 W
        Runtime Dynamic = 0.72988 W

          Register Files:
            Area = 0.133129 mm^2
            Peak Dynamic = 0 W
            Subthreshold Leakage = 0.0028163 W
            Subthreshold Leakage with power gating = 0.000892763 W
            Gate Leakage = 2.138e-05 W
            Runtime Dynamic = 0 W

              Integer RF:
                Area = 0.0834736 mm^2
                Peak Dynamic = 0 W
                Subthreshold Leakage = 0.00172228 W
                Subthreshold Leakage with power gating = 0.000521558 W
                Gate Leakage = 1.3533e-05 W
                Runtime Dynamic = 0 W

              Floating Point RF:
                Area = 0.0496557 mm^2
                Peak Dynamic = 0 W
                Subthreshold Leakage = 0.00109402 W
                Subthreshold Leakage with power gating = 0.000371205 W
                Gate Leakage = 7.84697e-06 W
                Runtime Dynamic = 0 W

          Instruction Scheduler:
            Area = 0.53269 mm^2
            Peak Dynamic = 3.36823 W
            Subthreshold Leakage = 0.0327819 W
            Subthreshold Leakage with power gating = 0.0179486 W
            Gate Leakage = 0.000257818 W
            Runtime Dynamic = 0 W

              Instruction Window:
                Area = 0.250713 mm^2
                Peak Dynamic = 1.44458 W
                Subthreshold Leakage = 0.0233811 W
                Subthreshold Leakage with power gating = 0.0133031 W
                Gate Leakage = 0.000189603 W
                Runtime Dynamic = 0 W

              FP Instruction Window:
                Area = 0.0803106 mm^2
                Peak Dynamic = 0.848283 W
                Subthreshold Leakage = 0.00495177 W
                Subthreshold Leakage with power gating = 0.00279839 W
                Gate Leakage = 4.09447e-05 W
                Runtime Dynamic = 0 W

              ROB:
                Area = 0.201666 mm^2
                Peak Dynamic = 1.07537 W
                Subthreshold Leakage = 0.00444903 W
                Subthreshold Leakage with power gating = 0.00184714 W
                Gate Leakage = 2.72708e-05 W
                Runtime Dynamic = 0 W

          Integer ALUs (Count: 6 ):
            Area = 0.230726 mm^2
            Peak Dynamic = 0 W
            Subthreshold Leakage = 0.0781696 W
            Subthreshold Leakage with power gating = 0.021319 W
            Gate Leakage = 0.000632815 W
            Runtime Dynamic = 0.121647 W

          Floating Point Units (FPUs) (Count: 2 ):
            Area = 1.11344 mm^2
            Peak Dynamic = 0 W
            Subthreshold Leakage = 0.0943076 W
            Subthreshold Leakage with power gating = 0.0257203 W
            Gate Leakage = 0.000763458 W
            Runtime Dynamic = 0.36494 W

          Complex ALUs (Mul/Div) (Count: 1 ):
            Area = 0.115363 mm^2
            Peak Dynamic = 0 W
            Subthreshold Leakage = 0.0390848 W
            Subthreshold Leakage with power gating = 0.0106595 W
            Gate Leakage = 0.000316407 W
            Runtime Dynamic = 0.243293 W

          Results Broadcast Bus:
            Area Overhead = 0.0135028 mm^2
            Peak Dynamic = 0 W
            Subthreshold Leakage = 0.0262163 W
            Subthreshold Leakage with power gating = 0.0071499 W
            Gate Leakage = 0.000212232 W
            Runtime Dynamic = 0 W

    L2
    Area = 0.622965 mm^2
    Peak Dynamic = 0 W
    Subthreshold Leakage = 0.128373 W
    Subthreshold Leakage with power gating = 0.0544083 W
    Gate Leakage = 0.000483288 W
    Runtime Dynamic = 3.9683e-07 W

*****************************************************************************************
      L3
      Area = 1.94122 mm^2
      Peak Dynamic = 0.032445 W
      Subthreshold Leakage = 0.188209 W
      Subthreshold Leakage with power gating = 0.0740346 W
      Gate Leakage = 0.000548527 W
      Runtime Dynamic = 0.0222971 W

*****************************************************************************************
BUSES
      Area = 0.153591 mm^2
      Peak Dynamic = 0 W
      Subthreshold Leakage = 0.0158041 W
      Subthreshold Leakage with power gating = 0.00474123 W
      Gate Leakage = 0.000219754 W
      Runtime Dynamic = 0 W

      Bus: 
        Area = 0.153591 mm^2
        Peak Dynamic = 0 W
        Subthreshold Leakage = 0.0158041 W
        Subthreshold Leakage with power gating = 0.00474123 W
        Gate Leakage = 0.000219754 W
        Runtime Dynamic = 0 W

*****************************************************************************************
